<?xml version="1.0" encoding="UTF-8"?>

<!-- generated on Sat  7 Mar 19:53:24 2020 by Eclipse SUMO GUI Version 1.4.0
-->

<configuration xmlns:xsi="http://www.w3.org/2001/XMLSchema-instance" xsi:noNamespaceSchemaLocation="http://sumo.dlr.de/xsd/sumoConfiguration.xsd">

    <input>
        <net-file value="/Users/dariaaza/Desktop/git/Deep-QLearning-Agent-for-Traffic-Signal-Control/Control_System/ped_intersection/ped_environment.net.xml"/>
        <route-files value="/Users/dariaaza/Desktop/git/Deep-QLearning-Agent-for-Traffic-Signal-Control/Control_System/ped_intersection/ped_episode_routes5.rou.xml"/>
    </input>

    <gui_only>
        <registry-viewport value="true"/>
    </gui_only>

</configuration>
