<?xml version="1.0" encoding="UTF-8"?>

<!-- generated on Wed 11 Mar 17:48:56 2020 by Eclipse SUMO netedit Version 1.4.0
<configuration xmlns:xsi="http://www.w3.org/2001/XMLSchema-instance" xsi:noNamespaceSchemaLocation="http://sumo.dlr.de/xsd/netconvertConfiguration.xsd">

    <input>
        <sumo-net-file value="/Users/dariaaza/Desktop/Projects/Deep-QLearning-Agent-for-Traffic-Signal-Control/TLCS/intersection/ped_environment.net.xml"/>
    </input>

    <output>
        <output-file value="/Users/dariaaza/Desktop/Projects/Deep-QLearning-Agent-for-Traffic-Signal-Control/TLCS/intersection/ped_environment.net.xml"/>
    </output>

    <processing>
        <geometry.min-radius.fix.railways value="false"/>
        <geometry.max-grade.fix value="false"/>
        <offset.disable-normalization value="true"/>
        <lefthand value="false"/>
    </processing>

    <junctions>
        <no-internal-links value="false"/>
        <no-turnarounds value="true"/>
        <junctions.corner-detail value="5"/>
        <junctions.limit-turn-speed value="5.5"/>
        <rectangular-lane-cut value="false"/>
    </junctions>

    <pedestrian>
        <walkingareas value="false"/>
    </pedestrian>

    <netedit>
        <route-files value="/Users/dariaaza/Desktop/Projects/Deep-QLearning-Agent-for-Traffic-Signal-Control/TLCS/intersection/ped_episode_routes5.rou.xml"/>
    </netedit>

    <report>
        <aggregate-warnings value="5"/>
    </report>

</configuration>
-->

<routes xmlns:xsi="http://www.w3.org/2001/XMLSchema-instance" xsi:noNamespaceSchemaLocation="http://sumo.dlr.de/xsd/routes_file.xsd">
    <vType id="standard_car" length="5.00" minGap="2.50" maxSpeed="25.00" accel="1.0" decel="4.5" sigma="0.5"/>
    <vType id="DEFAULT_PEDTYPE" vClass="pedestrian" color="blue"/>
    <route edges="E2TL TL2N" color="yellow" id="E_N"/>
    <route edges="E2TL TL2S" color="yellow" id="E_S"/>
    <route edges="E2TL TL2W" color="yellow" id="E_W"/>
    <route edges="N2TL TL2E" color="yellow" id="N_E"/>
    <route edges="N2TL TL2S" color="yellow" id="N_S"/>
    <route edges="N2TL TL2W" color="yellow" id="N_W"/>
    <route edges="S2TL TL2E" color="yellow" id="S_E"/>
    <route edges="S2TL TL2N" color="yellow" id="S_N"/>
    <route edges="S2TL TL2W" color="yellow" id="S_W"/>
    <route edges="W2TL TL2E" color="yellow" id="W_E"/>
    <route edges="W2TL TL2N" color="yellow" id="W_N"/>
    <route edges="W2TL TL2S" color="yellow" id="W_S"/>
    <personFlow id="personFlow_0" begin="0.00" color="blue" end="5500.00" number="25">
        <personTrip from="W2TL" to="TL2E"/>
    </personFlow>
    <personFlow id="personFlow_1" begin="0.00" color="blue" end="5500.00" number="25">
        <personTrip from="E2TL" to="TL2W"/>
    </personFlow>
    <personFlow id="personFlow_2" begin="0.00" color="blue" end="5500.00" number="25">
        <personTrip from="TL2S" to="N2TL"/>
    </personFlow>
    <personFlow id="personFlow_3" begin="0.00" color="blue" end="5500.00" number="25">
        <personTrip from="TL2N" to="S2TL"/>
    </personFlow>
    <personFlow id="personFlow_4" begin="0.00" color="blue" end="5500.00" number="25">
        <personTrip from="TL2E" to="W2TL"/>
    </personFlow>
    <personFlow id="personFlow_5" begin="0.00" color="blue" end="5500.00" number="25">
        <personTrip from="TL2W" to="E2TL"/>
    </personFlow>
    <personFlow id="personFlow_6" begin="0.00" color="blue" end="5500.00" number="25">
        <personTrip from="TL2S" to="N2TL"/>
    </personFlow>
    <personFlow id="personFlow_7" begin="0.00" color="blue" end="5500.00" number="25">
        <personTrip from="TL2N" to="S2TL"/>
    </personFlow>
    <vehicle id="S_N_0" type="standard_car" depart="66.00" departLane="random" departSpeed="10.00" route="S_N"/>
    <vehicle id="E_W_1" type="standard_car" depart="78.00" departLane="random" departSpeed="10.00" route="E_W"/>
    <vehicle id="W_E_2" type="standard_car" depart="123.00" departLane="random" departSpeed="10.00" route="W_E"/>
    <vehicle id="W_E_3" type="standard_car" depart="124.00" departLane="random" departSpeed="10.00" route="W_E"/>
    <vehicle id="E_W_4" type="standard_car" depart="132.00" departLane="random" departSpeed="10.00" route="E_W"/>
    <vehicle id="E_W_5" type="standard_car" depart="142.00" departLane="random" departSpeed="10.00" route="E_W"/>
    <vehicle id="N_W_6" type="standard_car" depart="145.00" departLane="random" departSpeed="10.00" route="N_W"/>
    <vehicle id="S_N_7" type="standard_car" depart="146.00" departLane="random" departSpeed="10.00" route="S_N"/>
    <vehicle id="N_S_8" type="standard_car" depart="185.00" departLane="random" departSpeed="10.00" route="N_S"/>
    <vehicle id="S_N_9" type="standard_car" depart="186.00" departLane="random" departSpeed="10.00" route="S_N"/>
    <vehicle id="N_S_10" type="standard_car" depart="188.00" departLane="random" departSpeed="10.00" route="N_S"/>
    <vehicle id="N_E_11" type="standard_car" depart="189.00" departLane="random" departSpeed="10.00" route="N_E"/>
    <vehicle id="N_S_12" type="standard_car" depart="189.00" departLane="random" departSpeed="10.00" route="N_S"/>
    <vehicle id="N_S_13" type="standard_car" depart="202.00" departLane="random" departSpeed="10.00" route="N_S"/>
    <vehicle id="E_W_15" type="standard_car" depart="212.00" departLane="random" departSpeed="10.00" route="E_W"/>
    <vehicle id="N_S_14" type="standard_car" depart="212.00" departLane="random" departSpeed="10.00" route="N_S"/>
    <vehicle id="E_W_16" type="standard_car" depart="222.00" departLane="random" departSpeed="10.00" route="E_W"/>
    <vehicle id="E_N_17" type="standard_car" depart="243.00" departLane="random" departSpeed="10.00" route="E_N"/>
    <vehicle id="E_N_18" type="standard_car" depart="243.00" departLane="random" departSpeed="10.00" route="E_N"/>
    <vehicle id="E_W_19" type="standard_car" depart="247.00" departLane="random" departSpeed="10.00" route="E_W"/>
    <vehicle id="N_S_20" type="standard_car" depart="250.00" departLane="random" departSpeed="10.00" route="N_S"/>
    <vehicle id="W_E_21" type="standard_car" depart="267.00" departLane="random" departSpeed="10.00" route="W_E"/>
    <vehicle id="E_W_22" type="standard_car" depart="273.00" departLane="random" departSpeed="10.00" route="E_W"/>
    <vehicle id="N_S_23" type="standard_car" depart="277.00" departLane="random" departSpeed="10.00" route="N_S"/>
    <vehicle id="N_S_24" type="standard_car" depart="289.00" departLane="random" departSpeed="10.00" route="N_S"/>
    <vehicle id="N_S_25" type="standard_car" depart="290.00" departLane="random" departSpeed="10.00" route="N_S"/>
    <vehicle id="N_S_26" type="standard_car" depart="292.00" departLane="random" departSpeed="10.00" route="N_S"/>
    <vehicle id="W_E_27" type="standard_car" depart="294.00" departLane="random" departSpeed="10.00" route="W_E"/>
    <vehicle id="E_W_28" type="standard_car" depart="303.00" departLane="random" departSpeed="10.00" route="E_W"/>
    <vehicle id="E_W_29" type="standard_car" depart="308.00" departLane="random" departSpeed="10.00" route="E_W"/>
    <vehicle id="E_W_30" type="standard_car" depart="313.00" departLane="random" departSpeed="10.00" route="E_W"/>
    <vehicle id="E_W_31" type="standard_car" depart="318.00" departLane="random" departSpeed="10.00" route="E_W"/>
    <vehicle id="W_E_32" type="standard_car" depart="322.00" departLane="random" departSpeed="10.00" route="W_E"/>
    <vehicle id="W_E_33" type="standard_car" depart="322.00" departLane="random" departSpeed="10.00" route="W_E"/>
    <vehicle id="N_S_34" type="standard_car" depart="339.00" departLane="random" departSpeed="10.00" route="N_S"/>
    <vehicle id="N_S_35" type="standard_car" depart="342.00" departLane="random" departSpeed="10.00" route="N_S"/>
    <vehicle id="S_N_37" type="standard_car" depart="344.00" departLane="random" departSpeed="10.00" route="S_N"/>
    <vehicle id="W_E_36" type="standard_car" depart="344.00" departLane="random" departSpeed="10.00" route="W_E"/>
    <vehicle id="S_N_38" type="standard_car" depart="352.00" departLane="random" departSpeed="10.00" route="S_N"/>
    <vehicle id="N_S_39" type="standard_car" depart="353.00" departLane="random" departSpeed="10.00" route="N_S"/>
    <vehicle id="W_E_40" type="standard_car" depart="356.00" departLane="random" departSpeed="10.00" route="W_E"/>
    <vehicle id="E_W_41" type="standard_car" depart="364.00" departLane="random" departSpeed="10.00" route="E_W"/>
    <vehicle id="N_S_42" type="standard_car" depart="364.00" departLane="random" departSpeed="10.00" route="N_S"/>
    <vehicle id="N_S_43" type="standard_car" depart="367.00" departLane="random" departSpeed="10.00" route="N_S"/>
    <vehicle id="S_N_44" type="standard_car" depart="370.00" departLane="random" departSpeed="10.00" route="S_N"/>
    <vehicle id="N_E_45" type="standard_car" depart="373.00" departLane="random" departSpeed="10.00" route="N_E"/>
    <vehicle id="S_N_46" type="standard_car" depart="381.00" departLane="random" departSpeed="10.00" route="S_N"/>
    <vehicle id="W_E_47" type="standard_car" depart="385.00" departLane="random" departSpeed="10.00" route="W_E"/>
    <vehicle id="S_N_48" type="standard_car" depart="387.00" departLane="random" departSpeed="10.00" route="S_N"/>
    <vehicle id="N_E_49" type="standard_car" depart="393.00" departLane="random" departSpeed="10.00" route="N_E"/>
    <vehicle id="E_W_50" type="standard_car" depart="400.00" departLane="random" departSpeed="10.00" route="E_W"/>
    <vehicle id="E_W_52" type="standard_car" depart="402.00" departLane="random" departSpeed="10.00" route="E_W"/>
    <vehicle id="W_E_51" type="standard_car" depart="402.00" departLane="random" departSpeed="10.00" route="W_E"/>
    <vehicle id="E_W_53" type="standard_car" depart="404.00" departLane="random" departSpeed="10.00" route="E_W"/>
    <vehicle id="E_W_54" type="standard_car" depart="406.00" departLane="random" departSpeed="10.00" route="E_W"/>
    <vehicle id="W_S_55" type="standard_car" depart="411.00" departLane="random" departSpeed="10.00" route="W_S"/>
    <vehicle id="W_E_56" type="standard_car" depart="413.00" departLane="random" departSpeed="10.00" route="W_E"/>
    <vehicle id="S_N_57" type="standard_car" depart="417.00" departLane="random" departSpeed="10.00" route="S_N"/>
    <vehicle id="E_W_59" type="standard_car" depart="420.00" departLane="random" departSpeed="10.00" route="E_W"/>
    <vehicle id="S_N_60" type="standard_car" depart="420.00" departLane="random" departSpeed="10.00" route="S_N"/>
    <vehicle id="W_E_58" type="standard_car" depart="420.00" departLane="random" departSpeed="10.00" route="W_E"/>
    <vehicle id="S_N_61" type="standard_car" depart="424.00" departLane="random" departSpeed="10.00" route="S_N"/>
    <vehicle id="E_W_62" type="standard_car" depart="433.00" departLane="random" departSpeed="10.00" route="E_W"/>
    <vehicle id="S_N_63" type="standard_car" depart="433.00" departLane="random" departSpeed="10.00" route="S_N"/>
    <vehicle id="S_N_64" type="standard_car" depart="437.00" departLane="random" departSpeed="10.00" route="S_N"/>
    <vehicle id="E_N_66" type="standard_car" depart="444.00" departLane="random" departSpeed="10.00" route="E_N"/>
    <vehicle id="W_N_65" type="standard_car" depart="444.00" departLane="random" departSpeed="10.00" route="W_N"/>
    <vehicle id="S_E_67" type="standard_car" depart="446.00" departLane="random" departSpeed="10.00" route="S_E"/>
    <vehicle id="W_E_68" type="standard_car" depart="449.00" departLane="random" departSpeed="10.00" route="W_E"/>
    <vehicle id="S_N_69" type="standard_car" depart="456.00" departLane="random" departSpeed="10.00" route="S_N"/>
    <vehicle id="S_W_70" type="standard_car" depart="457.00" departLane="random" departSpeed="10.00" route="S_W"/>
    <vehicle id="N_S_72" type="standard_car" depart="461.00" departLane="random" departSpeed="10.00" route="N_S"/>
    <vehicle id="W_N_71" type="standard_car" depart="461.00" departLane="random" departSpeed="10.00" route="W_N"/>
    <vehicle id="S_W_73" type="standard_car" depart="464.00" departLane="random" departSpeed="10.00" route="S_W"/>
    <vehicle id="N_S_74" type="standard_car" depart="471.00" departLane="random" departSpeed="10.00" route="N_S"/>
    <vehicle id="S_N_75" type="standard_car" depart="471.00" departLane="random" departSpeed="10.00" route="S_N"/>
    <vehicle id="W_E_76" type="standard_car" depart="472.00" departLane="random" departSpeed="10.00" route="W_E"/>
    <vehicle id="E_W_77" type="standard_car" depart="473.00" departLane="random" departSpeed="10.00" route="E_W"/>
    <vehicle id="S_N_78" type="standard_car" depart="483.00" departLane="random" departSpeed="10.00" route="S_N"/>
    <vehicle id="E_W_79" type="standard_car" depart="485.00" departLane="random" departSpeed="10.00" route="E_W"/>
    <vehicle id="W_S_80" type="standard_car" depart="490.00" departLane="random" departSpeed="10.00" route="W_S"/>
    <vehicle id="E_W_81" type="standard_car" depart="496.00" departLane="random" departSpeed="10.00" route="E_W"/>
    <vehicle id="W_N_82" type="standard_car" depart="499.00" departLane="random" departSpeed="10.00" route="W_N"/>
    <vehicle id="W_E_83" type="standard_car" depart="502.00" departLane="random" departSpeed="10.00" route="W_E"/>
    <vehicle id="E_N_84" type="standard_car" depart="504.00" departLane="random" departSpeed="10.00" route="E_N"/>
    <vehicle id="S_N_85" type="standard_car" depart="504.00" departLane="random" departSpeed="10.00" route="S_N"/>
    <vehicle id="E_W_86" type="standard_car" depart="505.00" departLane="random" departSpeed="10.00" route="E_W"/>
    <vehicle id="S_W_87" type="standard_car" depart="506.00" departLane="random" departSpeed="10.00" route="S_W"/>
    <vehicle id="E_W_88" type="standard_car" depart="507.00" departLane="random" departSpeed="10.00" route="E_W"/>
    <vehicle id="W_E_89" type="standard_car" depart="508.00" departLane="random" departSpeed="10.00" route="W_E"/>
    <vehicle id="E_W_90" type="standard_car" depart="509.00" departLane="random" departSpeed="10.00" route="E_W"/>
    <vehicle id="N_E_91" type="standard_car" depart="515.00" departLane="random" departSpeed="10.00" route="N_E"/>
    <vehicle id="W_E_92" type="standard_car" depart="521.00" departLane="random" departSpeed="10.00" route="W_E"/>
    <vehicle id="N_S_93" type="standard_car" depart="523.00" departLane="random" departSpeed="10.00" route="N_S"/>
    <vehicle id="N_S_95" type="standard_car" depart="523.00" departLane="random" departSpeed="10.00" route="N_S"/>
    <vehicle id="W_N_94" type="standard_car" depart="523.00" departLane="random" departSpeed="10.00" route="W_N"/>
    <vehicle id="N_E_96" type="standard_car" depart="527.00" departLane="random" departSpeed="10.00" route="N_E"/>
    <vehicle id="S_N_97" type="standard_car" depart="527.00" departLane="random" departSpeed="10.00" route="S_N"/>
    <vehicle id="W_E_98" type="standard_car" depart="532.00" departLane="random" departSpeed="10.00" route="W_E"/>
    <vehicle id="E_W_99" type="standard_car" depart="536.00" departLane="random" departSpeed="10.00" route="E_W"/>
    <vehicle id="W_E_100" type="standard_car" depart="540.00" departLane="random" departSpeed="10.00" route="W_E"/>
    <vehicle id="W_E_101" type="standard_car" depart="541.00" departLane="random" departSpeed="10.00" route="W_E"/>
    <vehicle id="S_N_102" type="standard_car" depart="544.00" departLane="random" departSpeed="10.00" route="S_N"/>
    <vehicle id="S_E_103" type="standard_car" depart="548.00" departLane="random" departSpeed="10.00" route="S_E"/>
    <vehicle id="W_E_104" type="standard_car" depart="551.00" departLane="random" departSpeed="10.00" route="W_E"/>
    <vehicle id="S_N_105" type="standard_car" depart="559.00" departLane="random" departSpeed="10.00" route="S_N"/>
    <vehicle id="E_W_106" type="standard_car" depart="561.00" departLane="random" departSpeed="10.00" route="E_W"/>
    <vehicle id="E_W_107" type="standard_car" depart="561.00" departLane="random" departSpeed="10.00" route="E_W"/>
    <vehicle id="N_S_108" type="standard_car" depart="562.00" departLane="random" departSpeed="10.00" route="N_S"/>
    <vehicle id="N_S_109" type="standard_car" depart="562.00" departLane="random" departSpeed="10.00" route="N_S"/>
    <vehicle id="W_E_110" type="standard_car" depart="565.00" departLane="random" departSpeed="10.00" route="W_E"/>
    <vehicle id="E_W_111" type="standard_car" depart="567.00" departLane="random" departSpeed="10.00" route="E_W"/>
    <vehicle id="N_S_112" type="standard_car" depart="568.00" departLane="random" departSpeed="10.00" route="N_S"/>
    <vehicle id="S_N_113" type="standard_car" depart="570.00" departLane="random" departSpeed="10.00" route="S_N"/>
    <vehicle id="N_S_114" type="standard_car" depart="571.00" departLane="random" departSpeed="10.00" route="N_S"/>
    <vehicle id="W_N_115" type="standard_car" depart="577.00" departLane="random" departSpeed="10.00" route="W_N"/>
    <vehicle id="E_W_117" type="standard_car" depart="584.00" departLane="random" departSpeed="10.00" route="E_W"/>
    <vehicle id="S_N_116" type="standard_car" depart="584.00" departLane="random" departSpeed="10.00" route="S_N"/>
    <vehicle id="E_W_118" type="standard_car" depart="590.00" departLane="random" departSpeed="10.00" route="E_W"/>
    <vehicle id="S_N_119" type="standard_car" depart="592.00" departLane="random" departSpeed="10.00" route="S_N"/>
    <vehicle id="E_W_121" type="standard_car" depart="593.00" departLane="random" departSpeed="10.00" route="E_W"/>
    <vehicle id="S_N_120" type="standard_car" depart="593.00" departLane="random" departSpeed="10.00" route="S_N"/>
    <vehicle id="E_S_123" type="standard_car" depart="594.00" departLane="random" departSpeed="10.00" route="E_S"/>
    <vehicle id="S_W_122" type="standard_car" depart="594.00" departLane="random" departSpeed="10.00" route="S_W"/>
    <vehicle id="E_N_125" type="standard_car" depart="596.00" departLane="random" departSpeed="10.00" route="E_N"/>
    <vehicle id="E_W_124" type="standard_car" depart="596.00" departLane="random" departSpeed="10.00" route="E_W"/>
    <vehicle id="N_S_126" type="standard_car" depart="599.00" departLane="random" departSpeed="10.00" route="N_S"/>
    <vehicle id="S_N_127" type="standard_car" depart="599.00" departLane="random" departSpeed="10.00" route="S_N"/>
    <vehicle id="N_E_128" type="standard_car" depart="606.00" departLane="random" departSpeed="10.00" route="N_E"/>
    <vehicle id="E_W_129" type="standard_car" depart="608.00" departLane="random" departSpeed="10.00" route="E_W"/>
    <vehicle id="W_E_130" type="standard_car" depart="609.00" departLane="random" departSpeed="10.00" route="W_E"/>
    <vehicle id="N_S_131" type="standard_car" depart="612.00" departLane="random" departSpeed="10.00" route="N_S"/>
    <vehicle id="E_N_133" type="standard_car" depart="614.00" departLane="random" departSpeed="10.00" route="E_N"/>
    <vehicle id="W_E_132" type="standard_car" depart="614.00" departLane="random" departSpeed="10.00" route="W_E"/>
    <vehicle id="W_E_134" type="standard_car" depart="618.00" departLane="random" departSpeed="10.00" route="W_E"/>
    <vehicle id="N_E_135" type="standard_car" depart="623.00" departLane="random" departSpeed="10.00" route="N_E"/>
    <vehicle id="W_E_136" type="standard_car" depart="625.00" departLane="random" departSpeed="10.00" route="W_E"/>
    <vehicle id="E_W_137" type="standard_car" depart="630.00" departLane="random" departSpeed="10.00" route="E_W"/>
    <vehicle id="S_N_138" type="standard_car" depart="632.00" departLane="random" departSpeed="10.00" route="S_N"/>
    <vehicle id="W_E_139" type="standard_car" depart="634.00" departLane="random" departSpeed="10.00" route="W_E"/>
    <vehicle id="W_E_140" type="standard_car" depart="635.00" departLane="random" departSpeed="10.00" route="W_E"/>
    <vehicle id="W_E_141" type="standard_car" depart="636.00" departLane="random" departSpeed="10.00" route="W_E"/>
    <vehicle id="W_N_142" type="standard_car" depart="640.00" departLane="random" departSpeed="10.00" route="W_N"/>
    <vehicle id="N_W_143" type="standard_car" depart="643.00" departLane="random" departSpeed="10.00" route="N_W"/>
    <vehicle id="N_S_144" type="standard_car" depart="645.00" departLane="random" departSpeed="10.00" route="N_S"/>
    <vehicle id="S_N_145" type="standard_car" depart="645.00" departLane="random" departSpeed="10.00" route="S_N"/>
    <vehicle id="S_N_146" type="standard_car" depart="646.00" departLane="random" departSpeed="10.00" route="S_N"/>
    <vehicle id="E_W_147" type="standard_car" depart="653.00" departLane="random" departSpeed="10.00" route="E_W"/>
    <vehicle id="S_N_148" type="standard_car" depart="654.00" departLane="random" departSpeed="10.00" route="S_N"/>
    <vehicle id="W_S_149" type="standard_car" depart="654.00" departLane="random" departSpeed="10.00" route="W_S"/>
    <vehicle id="E_N_151" type="standard_car" depart="663.00" departLane="random" departSpeed="10.00" route="E_N"/>
    <vehicle id="W_N_150" type="standard_car" depart="663.00" departLane="random" departSpeed="10.00" route="W_N"/>
    <vehicle id="E_W_152" type="standard_car" depart="664.00" departLane="random" departSpeed="10.00" route="E_W"/>
    <vehicle id="W_S_153" type="standard_car" depart="664.00" departLane="random" departSpeed="10.00" route="W_S"/>
    <vehicle id="S_W_154" type="standard_car" depart="669.00" departLane="random" departSpeed="10.00" route="S_W"/>
    <vehicle id="S_N_155" type="standard_car" depart="670.00" departLane="random" departSpeed="10.00" route="S_N"/>
    <vehicle id="N_W_156" type="standard_car" depart="673.00" departLane="random" departSpeed="10.00" route="N_W"/>
    <vehicle id="S_W_157" type="standard_car" depart="683.00" departLane="random" departSpeed="10.00" route="S_W"/>
    <vehicle id="S_N_158" type="standard_car" depart="685.00" departLane="random" departSpeed="10.00" route="S_N"/>
    <vehicle id="W_E_159" type="standard_car" depart="685.00" departLane="random" departSpeed="10.00" route="W_E"/>
    <vehicle id="N_W_161" type="standard_car" depart="686.00" departLane="random" departSpeed="10.00" route="N_W"/>
    <vehicle id="W_E_160" type="standard_car" depart="686.00" departLane="random" departSpeed="10.00" route="W_E"/>
    <vehicle id="N_S_162" type="standard_car" depart="690.00" departLane="random" departSpeed="10.00" route="N_S"/>
    <vehicle id="W_E_163" type="standard_car" depart="693.00" departLane="random" departSpeed="10.00" route="W_E"/>
    <vehicle id="E_S_164" type="standard_car" depart="694.00" departLane="random" departSpeed="10.00" route="E_S"/>
    <vehicle id="S_N_165" type="standard_car" depart="697.00" departLane="random" departSpeed="10.00" route="S_N"/>
    <vehicle id="E_W_166" type="standard_car" depart="698.00" departLane="random" departSpeed="10.00" route="E_W"/>
    <vehicle id="W_N_167" type="standard_car" depart="699.00" departLane="random" departSpeed="10.00" route="W_N"/>
    <vehicle id="N_S_168" type="standard_car" depart="700.00" departLane="random" departSpeed="10.00" route="N_S"/>
    <vehicle id="N_W_169" type="standard_car" depart="703.00" departLane="random" departSpeed="10.00" route="N_W"/>
    <vehicle id="W_N_170" type="standard_car" depart="704.00" departLane="random" departSpeed="10.00" route="W_N"/>
    <vehicle id="W_E_171" type="standard_car" depart="715.00" departLane="random" departSpeed="10.00" route="W_E"/>
    <vehicle id="W_N_172" type="standard_car" depart="718.00" departLane="random" departSpeed="10.00" route="W_N"/>
    <vehicle id="E_W_173" type="standard_car" depart="722.00" departLane="random" departSpeed="10.00" route="E_W"/>
    <vehicle id="E_W_176" type="standard_car" depart="723.00" departLane="random" departSpeed="10.00" route="E_W"/>
    <vehicle id="N_S_174" type="standard_car" depart="723.00" departLane="random" departSpeed="10.00" route="N_S"/>
    <vehicle id="W_N_175" type="standard_car" depart="723.00" departLane="random" departSpeed="10.00" route="W_N"/>
    <vehicle id="E_S_177" type="standard_car" depart="726.00" departLane="random" departSpeed="10.00" route="E_S"/>
    <vehicle id="E_W_178" type="standard_car" depart="728.00" departLane="random" departSpeed="10.00" route="E_W"/>
    <vehicle id="W_E_179" type="standard_car" depart="731.00" departLane="random" departSpeed="10.00" route="W_E"/>
    <vehicle id="E_W_180" type="standard_car" depart="733.00" departLane="random" departSpeed="10.00" route="E_W"/>
    <vehicle id="E_W_181" type="standard_car" depart="734.00" departLane="random" departSpeed="10.00" route="E_W"/>
    <vehicle id="W_N_182" type="standard_car" depart="735.00" departLane="random" departSpeed="10.00" route="W_N"/>
    <vehicle id="S_N_183" type="standard_car" depart="741.00" departLane="random" departSpeed="10.00" route="S_N"/>
    <vehicle id="N_S_184" type="standard_car" depart="744.00" departLane="random" departSpeed="10.00" route="N_S"/>
    <vehicle id="W_E_185" type="standard_car" depart="747.00" departLane="random" departSpeed="10.00" route="W_E"/>
    <vehicle id="N_E_187" type="standard_car" depart="751.00" departLane="random" departSpeed="10.00" route="N_E"/>
    <vehicle id="N_W_186" type="standard_car" depart="751.00" departLane="random" departSpeed="10.00" route="N_W"/>
    <vehicle id="N_S_188" type="standard_car" depart="754.00" departLane="random" departSpeed="10.00" route="N_S"/>
    <vehicle id="W_E_189" type="standard_car" depart="755.00" departLane="random" departSpeed="10.00" route="W_E"/>
    <vehicle id="W_N_190" type="standard_car" depart="755.00" departLane="random" departSpeed="10.00" route="W_N"/>
    <vehicle id="E_S_191" type="standard_car" depart="761.00" departLane="random" departSpeed="10.00" route="E_S"/>
    <vehicle id="W_E_192" type="standard_car" depart="761.00" departLane="random" departSpeed="10.00" route="W_E"/>
    <vehicle id="S_N_193" type="standard_car" depart="762.00" departLane="random" departSpeed="10.00" route="S_N"/>
    <vehicle id="E_W_194" type="standard_car" depart="763.00" departLane="random" departSpeed="10.00" route="E_W"/>
    <vehicle id="W_E_195" type="standard_car" depart="767.00" departLane="random" departSpeed="10.00" route="W_E"/>
    <vehicle id="S_N_196" type="standard_car" depart="772.00" departLane="random" departSpeed="10.00" route="S_N"/>
    <vehicle id="W_E_197" type="standard_car" depart="782.00" departLane="random" departSpeed="10.00" route="W_E"/>
    <vehicle id="W_E_198" type="standard_car" depart="782.00" departLane="random" departSpeed="10.00" route="W_E"/>
    <vehicle id="N_E_199" type="standard_car" depart="787.00" departLane="random" departSpeed="10.00" route="N_E"/>
    <vehicle id="N_S_200" type="standard_car" depart="788.00" departLane="random" departSpeed="10.00" route="N_S"/>
    <vehicle id="E_S_202" type="standard_car" depart="789.00" departLane="random" departSpeed="10.00" route="E_S"/>
    <vehicle id="W_E_201" type="standard_car" depart="789.00" departLane="random" departSpeed="10.00" route="W_E"/>
    <vehicle id="W_S_203" type="standard_car" depart="798.00" departLane="random" departSpeed="10.00" route="W_S"/>
    <vehicle id="W_E_204" type="standard_car" depart="800.00" departLane="random" departSpeed="10.00" route="W_E"/>
    <vehicle id="N_W_205" type="standard_car" depart="802.00" departLane="random" departSpeed="10.00" route="N_W"/>
    <vehicle id="N_S_206" type="standard_car" depart="803.00" departLane="random" departSpeed="10.00" route="N_S"/>
    <vehicle id="W_E_207" type="standard_car" depart="803.00" departLane="random" departSpeed="10.00" route="W_E"/>
    <vehicle id="N_S_208" type="standard_car" depart="810.00" departLane="random" departSpeed="10.00" route="N_S"/>
    <vehicle id="W_E_209" type="standard_car" depart="814.00" departLane="random" departSpeed="10.00" route="W_E"/>
    <vehicle id="W_E_210" type="standard_car" depart="815.00" departLane="random" departSpeed="10.00" route="W_E"/>
    <vehicle id="W_E_211" type="standard_car" depart="815.00" departLane="random" departSpeed="10.00" route="W_E"/>
    <vehicle id="S_N_212" type="standard_car" depart="818.00" departLane="random" departSpeed="10.00" route="S_N"/>
    <vehicle id="S_N_213" type="standard_car" depart="821.00" departLane="random" departSpeed="10.00" route="S_N"/>
    <vehicle id="S_N_214" type="standard_car" depart="822.00" departLane="random" departSpeed="10.00" route="S_N"/>
    <vehicle id="N_S_215" type="standard_car" depart="827.00" departLane="random" departSpeed="10.00" route="N_S"/>
    <vehicle id="E_N_216" type="standard_car" depart="830.00" departLane="random" departSpeed="10.00" route="E_N"/>
    <vehicle id="N_S_217" type="standard_car" depart="830.00" departLane="random" departSpeed="10.00" route="N_S"/>
    <vehicle id="S_E_219" type="standard_car" depart="833.00" departLane="random" departSpeed="10.00" route="S_E"/>
    <vehicle id="S_N_218" type="standard_car" depart="833.00" departLane="random" departSpeed="10.00" route="S_N"/>
    <vehicle id="N_E_220" type="standard_car" depart="836.00" departLane="random" departSpeed="10.00" route="N_E"/>
    <vehicle id="W_E_221" type="standard_car" depart="836.00" departLane="random" departSpeed="10.00" route="W_E"/>
    <vehicle id="W_N_222" type="standard_car" depart="836.00" departLane="random" departSpeed="10.00" route="W_N"/>
    <vehicle id="S_N_223" type="standard_car" depart="838.00" departLane="random" departSpeed="10.00" route="S_N"/>
    <vehicle id="E_N_224" type="standard_car" depart="840.00" departLane="random" departSpeed="10.00" route="E_N"/>
    <vehicle id="N_S_225" type="standard_car" depart="843.00" departLane="random" departSpeed="10.00" route="N_S"/>
    <vehicle id="N_S_226" type="standard_car" depart="844.00" departLane="random" departSpeed="10.00" route="N_S"/>
    <vehicle id="S_N_227" type="standard_car" depart="845.00" departLane="random" departSpeed="10.00" route="S_N"/>